python/psse/case2.raw
0,   100.00, 33, 1, 1, 60.00     / PSS(R)E University-33.4    WED, NOV 19 2014  10:28
CONVERTED DATA FROM A MATPOWER CASE
MATPOWER CASE NAME: CASE2
     1,'B0001       ', 345.0000,3,   1,   1,   1,1.00000,   0.0000,1.10000,0.90000,1.10000,0.90000
     2,'B0002       ', 345.0000,2,   1,   1,   1,1.00000,  -6.2002,1.10000,0.90000,1.10000,0.90000
     3,'B0003       ', 345.0000,1,   1,   1,   1,0.87833, -21.7860,1.10000,0.90000,1.10000,0.90000
     4,'B0004       ', 345.0000,1,   1,   1,   1,0.88418, -26.1155,1.10000,0.90000,1.10000,0.90000
0 / END OF BUS DATA, BEGIN LOAD DATA
     3,'1 ',1,   1,   1,     0.000,     0.000,     0.000,     0.000,   170.000,    50.000,   1,1,0
     4,'1 ',1,   1,   1,     0.000,     0.000,     0.000,     0.000,   310.000,    70.000,   2,1,0
0 / END OF LOAD DATA, BEGIN FIXED SHUNT DATA
0 / END OF FIXED SHUNT DATA, BEGIN GENERATOR DATA
     1,'1 ',   000.000,     0.000,   300.000,  -300.000,1.00000,     0,   100.000, 0.00000E+0, 6.97000E-2, 0.00000E+0, 0.00000E+0,1.00000,1,  100.0,   250.000,    10.000,   1,1.0000
     2,'1 ',   200.000,     0.000,   300.000,  -300.000,1.00000,     0,   100.000, 0.00000E+0, 5.31000E-2, 0.00000E+0, 0.00000E+0,1.00000,1,  100.0,  9999.000,    10.000,   1,1.0000
0 / END OF GENERATOR DATA, BEGIN BRANCH DATA
     1,     3,'1 ', 3.80000E-2, 1.70000E-1,   0.20900,  250.00,  250.00,  250.00,  0.00000,  0.00000,  0.00000,  0.00000,1,1,   0.00,   1,1.0000
     2,     4,'1 ', 3.20000E-2, 1.61000E-1,   0.15800,  250.00,  250.00,  250.00,  0.00000,  0.00000,  0.00000,  0.00000,1,1,   0.00,   1,1.0000
     3,     4,'1 ', 1.19000E-2, 1.00800E-1,   0.35800,  150.00,  150.00,  150.00,  0.00000,  0.00000,  0.00000,  0.00000,1,1,   0.00,   1,1.0000
0 / END OF BRANCH DATA, BEGIN TRANSFORMER DATA
0 / END OF TRANSFORMER DATA, BEGIN AREA DATA
   1,     0,     0.000,    10.000,'AREA 1      '
0 / END OF AREA DATA, BEGIN TWO-TERMINAL DC DATA
0 / END OF TWO-TERMINAL DC DATA, BEGIN VSC DC LINE DATA
0 / END OF VSC DC LINE DATA, BEGIN IMPEDANCE CORRECTION DATA
0 / END OF IMPEDANCE CORRECTION DATA, BEGIN MULTI-TERMINAL DC DATA
0 / END OF MULTI-TERMINAL DC DATA, BEGIN MULTI-SECTION LINE DATA
0 / END OF MULTI-SECTION LINE DATA, BEGIN ZONE DATA
0 / END OF ZONE DATA, BEGIN INTER-AREA TRANSFER DATA
0 / END OF INTER-AREA TRANSFER DATA, BEGIN OWNER DATA
0 / END OF OWNER DATA, BEGIN FACTS DEVICE DATA
0 / END OF FACTS DEVICE DATA, BEGIN SWITCHED SHUNT DATA
0 / END OF SWITCHED SHUNT DATA, BEGIN GNE DATA
0 / END OF GNE DATA, BEGIN INDUCTION MACHINE DATA
0 / END OF INDUCTION MACHINE DATA
Q
